 xtb: 6.7.1 (edcfbbe)
          05252615543D

  4  3  0     0  0            999 V2000
    0.0340    0.2390   -0.0480 O   0  0  0  0  0  0  0  0  0  0  0  0
    0.2152    0.1354    1.3577 O   0  0  0  0  0  0  0  0  0  0  0  0
    0.8378   -0.1762   -0.3863 H   0  0  0  0  0  0  0  0  0  0  0  0
   -0.5842    0.5575    1.6956 H   0  0  0  0  0  0  0  0  0  0  0  0
  1  2  1  0  0  0  0
  1  3  1  0  0  0  0
  2  4  1  0  0  0  0
M  END
