 xtb: 6.7.1 (edcfbbe)
          05252620583D

 17 16  0     0  0            999 V2000
    0.1032   -0.4033    0.0754 C   0  0  0  0  0  0  0  0  0  0  0  0
    0.0023    0.0080    1.3365 C   0  0  0  0  0  0  0  0  0  0  0  0
    1.2926   -0.1011   -0.7858 C   0  0  0  0  0  0  0  0  0  0  0  0
    0.8187    0.5778    1.7706 H   0  0  0  0  0  0  0  0  0  0  0  0
   -1.1501   -0.2294    2.2627 C   0  0  0  0  0  0  0  0  0  0  0  0
   -1.0080   -1.1724   -0.5849 C   0  0  0  0  0  0  0  0  0  0  0  0
   -2.1617   -0.2991   -0.7270 O   0  0  0  0  0  0  0  0  0  0  0  0
   -3.1271   -0.8983   -1.3511 O   0  0  0  0  0  0  0  0  0  0  0  0
   -0.7381   -1.5011   -1.5868 H   0  0  0  0  0  0  0  0  0  0  0  0
   -1.3375   -2.0325   -0.0029 H   0  0  0  0  0  0  0  0  0  0  0  0
    1.7372   -1.0230   -1.1671 H   0  0  0  0  0  0  0  0  0  0  0  0
    0.9968    0.4924   -1.6537 H   0  0  0  0  0  0  0  0  0  0  0  0
    2.0530    0.4465   -0.2335 H   0  0  0  0  0  0  0  0  0  0  0  0
   -1.8728   -0.9311    1.8378 H   0  0  0  0  0  0  0  0  0  0  0  0
   -0.7087   -0.6619    3.5396 O   0  0  0  0  0  0  0  0  0  0  0  0
   -1.6809    0.7072    2.4367 H   0  0  0  0  0  0  0  0  0  0  0  0
   -0.1999   -1.4688    3.4317 H   0  0  0  0  0  0  0  0  0  0  0  0
  1  2  2  0  0  0  0
  1  3  1  0  0  0  0
  2  4  1  0  0  0  0
  2  5  1  0  0  0  0
  1  6  1  0  0  0  0
  6  7  1  0  0  0  0
  7  8  1  0  0  0  0
  6  9  1  0  0  0  0
  6 10  1  0  0  0  0
  3 11  1  0  0  0  0
  3 12  1  0  0  0  0
  3 13  1  0  0  0  0
  5 14  1  0  0  0  0
  5 15  1  0  0  0  0
  5 16  1  0  0  0  0
 15 17  1  0  0  0  0
M  END
