 xtb: 6.7.1 (edcfbbe)
          10242423393D

 14 13  0     0  0            999 V2000
   -1.1854    1.5004   -0.1748 C   0  0  0  0  0  0  0  0  0  0  0  0
    0.0571    1.5256    0.2905 C   0  0  0  0  0  0  0  0  0  0  0  0
    1.1824    0.6713   -0.0903 C   0  0  0  0  0  0  0  0  0  0  0  0
    1.1824   -0.6713   -0.0903 C   0  0  0  0  0  0  0  0  0  0  0  0
    0.0571   -1.5256    0.2905 C   0  0  0  0  0  0  0  0  0  0  0  0
   -1.1854   -1.5004   -0.1748 C   0  0  0  0  0  0  0  0  0  0  0  0
    0.2853    2.2262    1.0903 H   0  0  0  0  0  0  0  0  0  0  0  0
    2.1440    1.1648   -0.1993 H   0  0  0  0  0  0  0  0  0  0  0  0
    2.1440   -1.1648   -0.1993 H   0  0  0  0  0  0  0  0  0  0  0  0
    0.2853   -2.2262    1.0903 H   0  0  0  0  0  0  0  0  0  0  0  0
   -1.9720   -2.0765    0.2944 H   0  0  0  0  0  0  0  0  0  0  0  0
   -1.4621   -0.9241   -1.0427 H   0  0  0  0  0  0  0  0  0  0  0  0
   -1.9720    2.0765    0.2944 H   0  0  0  0  0  0  0  0  0  0  0  0
   -1.4621    0.9241   -1.0437 H   0  0  0  0  0  0  0  0  0  0  0  0
  1  2  2  0  0  0  0
  2  3  1  0  0  0  0
  3  4  2  0  0  0  0
  4  5  1  0  0  0  0
  5  6  2  0  0  0  0
  2  7  1  0  0  0  0
  3  8  1  0  0  0  0
  4  9  1  0  0  0  0
  5 10  1  0  0  0  0
  6 11  1  0  0  0  0
  6 12  1  0  0  0  0
  1 13  1  0  0  0  0
  1 14  1  0  0  0  0
M  END
