 xtb: 6.7.1 (edcfbbe)
          10232414433D

  3  2  0     0  0            999 V2000
   -0.0111    0.0000   -0.0079 O   0  0  0  0  0  0  0  0  0  0  0  0
    0.0075    0.0000    0.9511 H   0  0  0  0  0  0  0  0  0  0  0  0
    0.8992    0.0000   -0.3099 H   0  0  0  0  0  0  0  0  0  0  0  0
  1  2  1  0  0  0  0
  1  3  1  0  0  0  0
M  END
